[General]
network = Network
Network.*.n=10
Network.n=10
Network.*.timeSlotPeriod = 1ms
Network.antenna.packetMeanIntTime = ${1.3ms}
Network.antenna.windowing = false
Network.antenna.windowingWeight = 0.40
Network.*.successProb = 0.05
sim-time-limit = 10s
seed-set = ${repetition}
repeat = 100
num-rngs = 3 #One for packet size. One for interarrival times. One for CQIS
warmup-period = 30s
[Config uniformCQI]
Network.*.uniformServ = false

[Config binomialCQITwoChunks]
Network.*.uniformServ = true
Network.antenna.timeslotWindow = -1
