[General]
network = Network
Network.*.n=30
Network.n=30
Network.*.timeSlotPeriod = 1ms
Network.antenna.packetMeanIntTime = 5ms
sim-time-limit = 5s
seed-set = 981839

[Config uniformServices]
Network.*.uniformServ = true

[Config binomialServices]
Network.*.uniformServ = false

