[General]
network = Network
Network.*.n=10
Network.n=10
Network.*.timeSlotPeriod = 1 s 
Network.antenna.packetMeanRate = 30 hz
sim-time-limit = 10s
seed-set = 981839