[General]
network = Network
Network.*.n=10
Network.n=10
Network.*.timeSlotPeriod = 1ms
Network.antenna.packetMeanIntTime = 0.1ms
Network.*.uniformServ = false
sim-time-limit = 10s
seed-set = 981839