[General]
network = Network
Network.*.n=30
Network.n=30
Network.*.timeSlotPeriod = 1ms
Network.antenna.packetMeanIntTime = 3ms
sim-time-limit = 5s
seed-set = 981839
num-rngs = 3 #One for packet size. One for interarrival times. One for CQIS

[Config uniformServices]
Network.*.uniformServ = true

[Config binomialServices]
Network.*.uniformServ = false

