[General]
network = Network
Network.*.n=10
Network.n=10
Network.*.timeSlotPeriod = 1ms
Network.antenna.packetMeanIntTime = 0.5ms
sim-time-limit = 100ms
seed-set = 981839

[Config uniformServices]
Network.*.uniformServ = true
