[General]
network = Network
Network.*.n=10
Network.n=10
Network.*.timeSlotPeriod = 1ms
Network.antenna.packetMeanIntTime = 0.8ms
sim-time-limit = 60s
seed-set = ${repetition}
repeat = 4
num-rngs = 3 #One for packet size. One for interarrival times. One for CQIS

[Config uniformServices]
Network.*.uniformServ = 0

[Config binomialServices]
Network.*.uniformServ = 1

[Config binomialServicesTwoChunks]
Network.*.uniformServ = 2
