[General]
network = Network
Network.*.n=10
Network.n=10
Network.*.timeSlotPeriod = 1ms
Network.antenna.packetMeanIntTime = 0.9ms
sim-time-limit = 120s
seed-set = ${repetition}
repeat = 10
num-rngs = 3 #One for packet size. One for interarrival times. One for CQIS
warmup-period = 30s
[Config uniformServices]
Network.*.uniformServ = 0

[Config binomialServices]
Network.*.uniformServ = 1

[Config binomialServicesTwoChunks]
Network.*.uniformServ = 2
