[General]
network = Network
Network.*.n=10
Network.n=10
Network.*.timeSlotPeriod = 1 ms #1000 ns
sim-time-limit = 10s